data_dy3al5o12

_cell_length_a 11.8997(0.0011)
_cell_length_b 11.8997
_cell_length_c 11.8997
_cell_angle_alpha 90
_cell_angle_beta 90
_cell_angle_gamma 90
_space_group_name_H-M_alt "I a -3 d"
_space_group_IT_coordinate_system_code 1

loop_
_atom_site_label
_atom_site_type_symbol
_atom_site_fract_x
_atom_site_fract_y
_atom_site_fract_z
_atom_site_occupancy
_atom_site_adp_type
_atom_site_B_iso_or_equiv
_atom_site_multiplicity
_atom_site_Wyckoff_symbol
Dy Dy 0.125 0 0.25 1 Biso 0 24 c 
Al1 Al 0.375 0 0.25 1 Biso 0 24 d 
Al2 Al 0 0 0 1 Biso 0 16 a 
O O 0.0301(0.0004) 0.0499(0.0006) 0.648(0.0008) 1 Biso 0 96 h