data_PbSO4

_cell_length_a   8.45
_cell_length_b   5.39597098
_cell_length_c   6.95703451
_cell_angle_alpha   90.0
_cell_angle_beta   90.0
_cell_angle_gamma   90.0
_space_group_name_H-M_alt   'P n m a'

loop_
 _atom_site_label
 _atom_site_type_symbol
 _atom_site_occupancy
 _atom_site_fract_x
 _atom_site_fract_y
 _atom_site_fract_z
 _atom_site_adp_type
 _atom_site_U_iso_or_equiv
  Pb  Pb  1.0  0.188  0.25  0.166807  Uiso  0.01692
  S  S  1.0  0.065  0.25  0.685  Uiso  0.00258
  O1  O  1.0  0.908  0.25  0.595  Uiso  0.02469
  O2  O  1.0  0.19357  0.25  0.54326767  Uiso  0.01803
  O3  O  1.0  0.08148  0.027453  0.80854688  Uiso  0.01655
