data_si3n4_b

_cell_length_a 7.6038
_cell_length_b 7.6038
_cell_length_c 2.9067
_cell_angle_alpha 90
_cell_angle_beta 90
_cell_angle_gamma 120
_space_group_name_H-M_alt "P 63/m"
_space_group_IT_coordinate_system_code h

loop_
_atom_site_label
_atom_site_type_symbol
_atom_site_fract_x
_atom_site_fract_y
_atom_site_fract_z
_atom_site_occupancy
_atom_site_adp_type
_atom_site_B_iso_or_equiv
_atom_site_multiplicity
_atom_site_Wyckoff_symbol
Si Si 0.1752 0.7698 0.25 1 Biso 0.003 6 h
N1 N 0.3313 0.0312 0.25 1 Biso 0.0066 6 h
N2 N 0.3333 0.6667 0.25 1 Biso 0.0107 2 c
