data_si3n4_a

_cell_length_a 7.7509
_cell_length_b 7.7509
_cell_length_c 5.6189
_cell_angle_alpha 90
_cell_angle_beta 90
_cell_angle_gamma 120
_space_group_name_H-M_alt "P 3 1 c"
_space_group_IT_coordinate_system_code h

loop_
_atom_site_label
_atom_site_type_symbol
_atom_site_fract_x
_atom_site_fract_y
_atom_site_fract_z
_atom_site_occupancy
_atom_site_adp_type
_atom_site_B_iso_or_equiv
_atom_site_multiplicity
_atom_site_Wyckoff_symbol
Si1 Si 0.0819 0.5118 0.6596 1 Biso 0.0018 6 c
Si2 Si 0.2532 0.1676 0.4509 1 Biso 0.0035 6 c
N1 N 0.6551 0.6106 0.4327 1 Biso 0.0048 6 c
N2 N 0.3151 0.3186 0.698 1 Biso 0.005 6 c
N3 N 0.3333 0.6667 0.6039 1 Biso 0.0049 2 b
N4 N 0 0 0.4529 1 Biso 0.0049 2 a
