data_PbSO4

_space_group_name_H-M_alt   'P n m a'

_cell_length_a       8.4500
_cell_length_b       5.3959
_cell_length_c       6.9570
_cell_angle_alpha   90.0
_cell_angle_beta    90.0
_cell_angle_gamma   90.0

loop_
 _atom_site_label
 _atom_site_type_symbol
 _atom_site_fract_x
 _atom_site_fract_y
 _atom_site_fract_z
 _atom_site_occupancy
 _atom_site_adp_type
 _atom_site_U_iso_or_equiv
  Pb  Pb  0.1880  0.25    0.1668  1.0  Uiso  0.01692
  S   S   0.0650  0.25    0.6850  1.0  Uiso  0.00258
  O1  O   0.9080  0.25    0.5950  1.0  Uiso  0.02469
  O2  O   0.1935  0.25    0.5432  1.0  Uiso  0.01803
  O3  O   0.0814  0.0274  0.8085  1.0  Uiso  0.01655
