data_Dichlorine

_cell_length_a   8.56
_cell_length_b   8.56
_cell_length_c   6.12
_cell_angle_alpha   90.0
_cell_angle_beta   90.0
_cell_angle_gamma   90.0
_space_group_name_H-M_alt   'P 42/n c m'
_space_group.IT_coordinate_system_code   1

loop_
 _atom_site_label
 _atom_site_type_symbol
 _atom_site_occupancy
 _atom_site_fract_x
 _atom_site_fract_y
 _atom_site_fract_z
 _atom_site_adp_type
 _atom_site_U_iso_or_equiv
  Cl1  Cl  1.0  0.125  0.167  0.107  Uiso  0.0
