data_SrTiO3

_cell_length_a   5.5202(2)
_cell_length_b   5.5202(2)
_cell_length_c   7.8067(3)
_cell_angle_alpha   90.0
_cell_angle_beta   90.0
_cell_angle_gamma   90.0
_space_group_name_H-M_alt   'P b n m'

loop_
 _atom_site_label
 _atom_site_type_symbol
 _atom_site_occupancy
 _atom_site_fract_x
 _atom_site_fract_y
 _atom_site_fract_z
 _atom_site_adp_type
 _atom_site_U_iso_or_equiv
  Sr  Sr  1.0  0.0  0.0  0.25  Uiso  0.0
  Ti  Ti  1.0  0.5  0.0  0.0  Uiso  0.0
  O1  O  1.0  0.0  0.5  0.25  Uiso  0.0
  O2  O  1.0  0.75  0.25  0.0  Uiso  0.0

