data_Si3N4_beta

_space_group_name_H-M_alt   'P 63/m'

_cell_length_a   7.605376
_cell_length_b   7.605376
_cell_length_c   2.907065
_cell_angle_alpha    90.0
_cell_angle_beta     90.0
_cell_angle_gamma   120.0

loop_
 _atom_site_label
 _atom_site_type_symbol
 _atom_site_occupancy
 _atom_site_fract_x
 _atom_site_fract_y
 _atom_site_fract_z
 _atom_site_adp_type
 _atom_site_U_iso_or_equiv
  Si   Si  1.0  0.17522  0.76977  0.25000  Uiso  0.01
  N1   N   1.0  0.33131  0.03120  0.25000  Uiso  0.01
  N2   N   1.0  0.33333  0.66667  0.25000  Uiso  0.01
