data_Si3N4_alpha

_cell_length_a 7.75092882
_cell_length_b 7.75092882
_cell_length_c 5.61886556
_cell_angle_alpha 90.0
_cell_angle_beta 90.0
_cell_angle_gamma 120.0
_space_group_name_H-M_alt 'P 3 1 c'

loop_
_atom_site_label
_atom_site_type_symbol
_atom_site_occupancy
_atom_site_fract_x
_atom_site_fract_y
_atom_site_fract_z
_atom_site_adp_type
_atom_site_U_iso_or_equiv
Si1 Si 1.0 0.0819 0.5118 0.65958 Uiso 0.0018421
Si2 Si 1.0 0.25323 0.16763 0.4509 Uiso 0.003458
N1 N 1.0 0.65512 0.61058 0.43269 Uiso 0.00484863
N2 N 1.0 0.31514 0.31865 0.69801 Uiso 0.00501808
N3 N 1.0 0.33333333 0.66666667 0.60394 Uiso 0.00490371
N4 N 1.0 0.0 0.0 0.45292 Uiso 0.00487042
