data_Si3N4_alpha

_space_group_name_H-M_alt   'P 3 1 c'

_cell_length_a   7.751856
_cell_length_b   7.751856
_cell_length_c   5.619506
_cell_angle_alpha    90.0
_cell_angle_beta     90.0
_cell_angle_gamma   120.0

loop_
 _atom_site_label
 _atom_site_type_symbol
 _atom_site_occupancy
 _atom_site_fract_x
 _atom_site_fract_y
 _atom_site_fract_z
 _atom_site_adp_type
 _atom_site_U_iso_or_equiv
  Si1  Si  1.0  0.08185  0.51180  0.65958  Uiso  0.01
  Si2  Si  1.0  0.25323  0.16763  0.45090  Uiso  0.01
  N1   N   1.0  0.65512  0.61058  0.43269  Uiso  0.01
  N2   N   1.0  0.31514  0.31865  0.69801  Uiso  0.01
  N3   N   1.0  0.33333  0.66667  0.60394  Uiso  0.01
  N4   N   1.0  0.00000  0.00000  0.45292  Uiso  0.01
