data_Na2Ca3Al2F14

_cell_length_a 10.2515
_cell_length_b 10.2515
_cell_length_c 10.2515
_cell_angle_alpha 90.0
_cell_angle_beta 90.0
_cell_angle_gamma 90.0
_space_group_name_H-M_alt 'I 21 3'

loop_
_atom_site_label
_atom_site_type_symbol
_atom_site_occupancy
_atom_site_fract_x
_atom_site_fract_y
_atom_site_fract_z
_atom_site_adp_type
_atom_site_B_iso_or_equiv
Ca Ca 1.0 0.46697 0.0 0.25 Biso 1.0
Al Al 1.0 0.24896 0.24896 0.24896 Biso 1.0
Na Na 1.0 0.08606 0.08606 0.08606 Biso 1.0
F1 F 1.0 0.13364 0.3061 0.12133 Biso 1.0
F2 F 1.0 0.36364 0.36338 0.18679 Biso 1.0
F3 F 1.0 0.46094 0.46094 0.46094 Biso 1.0
