data_Ho2Ti2O7

_space_group_name_H-M_alt               'F d -3 m'
_space_group.IT_coordinate_system_code  2

_cell_length_a 	   10.26593
_cell_length_b     10.26593
_cell_length_c     10.26593
_cell_angle_alpha  90.0
_cell_angle_beta   90.0
_cell_angle_gamma  90.0

loop_
_atom_site_label
_atom_site_type_symbol
_atom_site_fract_x
_atom_site_fract_y
_atom_site_fract_z
_atom_site_occupancy
_atom_site_adp_type
_atom_site_U_iso_or_equiv
Ho Ho3+  0.5     0.5   0.5     1.0   Uiso 0.0
Ti Ti3+  0.0     0.0   0.0     1.0   Uiso 0.0
O1 O2-   0.32858 0.125 0.125   1.0   Uiso 0.0
O2 O2-   0.375   0.375 0.375   1.0   Uiso 0.0

loop_
_atom_site_susceptibility_label
_atom_site_susceptibility_chi_type
_atom_site_susceptibility_chi_11
_atom_site_susceptibility_chi_22
_atom_site_susceptibility_chi_33
_atom_site_susceptibility_chi_12
_atom_site_susceptibility_chi_13
_atom_site_susceptibility_chi_23
Ho Cani 3.826 3.826 3.826 3.738 3.738 3.738

loop_
_atom_site_scat_label
_atom_site_scat_lande
_atom_site_scat_kappa
Ho 2.0 1.0
