data_LBCO

_cell_length_a 3.8903
_cell_length_b 3.8903
_cell_length_c 3.8903
_cell_angle_alpha 90.0
_cell_angle_beta  90.0
_cell_angle_gamma 90.0
_space_group_name_H-M_alt 'P m -3 m'

loop_
_atom_site_label
_atom_site_type_symbol
_atom_site_occupancy
_atom_site_fract_x
_atom_site_fract_y
_atom_site_fract_z
_atom_site_adp_type
_atom_site_U_iso_or_equiv
La La   0.5   0.0 0.0 0.0   Uiso 0.0061
Ba Ba   0.5   0.0 0.0 0.0   Uiso 0.0061
Co Co   1.0   0.5 0.5 0.5   Uiso 0.0033
O  O    1.0   0.0 0.5 0.5   Uiso 0.0177
